2    
Iteration 0 Energy -109.02354179
N        0.0000000000    0.0000000000    0.0000000000
N        0.0000000000    0.0000000000    1.2000000000
2    
Iteration 1 Energy -109.04585979
N       -0.0000000000   -0.0000000000    0.0541938270
N        0.0000000000    0.0000000000    1.1458061730
2    
Iteration 2 Energy -109.04609637
N       -0.0000039000    0.0000055265    0.0472950300
N        0.0000039000   -0.0000055265    1.1527049700
2    
Iteration 3 Energy -109.04614434
N       -0.0000011857    0.0000006636    0.0492564359
N        0.0000011857   -0.0000006636    1.1507435641
